<?xml version="1.0" encoding="UTF-8"?>
<graphml xmlns="http://graphml.graphdrawing.org/xmlns"
         xmlns:xsi="http://www.w3.org/2001/XMLSchema-instance"
         xsi:schemaLocation="http://graphml.graphdrawing.org/xmlns
         http://graphml.graphdrawing.org/xmlns/1.0/graphml.xsd">
<!-- Created by igraph -->
  <key id="v_name" for="node" attr.name="name" attr.type="string"/>
  <key id="v_description" for="node" attr.name="description" attr.type="string"/>
  <key id="v_database" for="node" attr.name="database" attr.type="string"/>
  <key id="v_pValue" for="node" attr.name="pValue" attr.type="double"/>
  <key id="v_pp" for="node" attr.name="pp" attr.type="double"/>
  <key id="v_size" for="node" attr.name="size" attr.type="double"/>
  <key id="v_nSignificant" for="node" attr.name="nSignificant" attr.type="double"/>
  <key id="v_setRank" for="node" attr.name="setRank" attr.type="double"/>
  <key id="v_pSetRank" for="node" attr.name="pSetRank" attr.type="double"/>
  <key id="v_correctedPValue" for="node" attr.name="correctedPValue" attr.type="double"/>
  <key id="v_adjustedPValue" for="node" attr.name="adjustedPValue" attr.type="double"/>
  <key id="e_type" for="edge" attr.name="type" attr.type="string"/>
  <key id="e_source_pDiff" for="edge" attr.name="source_pDiff" attr.type="double"/>
  <key id="e_source_ppDiff" for="edge" attr.name="source_ppDiff" attr.type="double"/>
  <key id="e_source_diffSize" for="edge" attr.name="source_diffSize" attr.type="double"/>
  <key id="e_sink_pDiff" for="edge" attr.name="sink_pDiff" attr.type="double"/>
  <key id="e_sink_ppDiff" for="edge" attr.name="sink_ppDiff" attr.type="double"/>
  <key id="e_sink_diffSize" for="edge" attr.name="sink_diffSize" attr.type="double"/>
  <key id="e_deltaP" for="edge" attr.name="deltaP" attr.type="double"/>
  <key id="e_intersectionSize" for="edge" attr.name="intersectionSize" attr.type="double"/>
  <key id="e_pIntersection" for="edge" attr.name="pIntersection" attr.type="double"/>
  <key id="e_ppIntersection" for="edge" attr.name="ppIntersection" attr.type="double"/>
  <key id="e_jaccard" for="edge" attr.name="jaccard" attr.type="double"/>
  <key id="e_significantJaccard" for="edge" attr.name="significantJaccard" attr.type="double"/>
  <key id="e_discardSource" for="edge" attr.name="discardSource" attr.type="boolean"/>
  <key id="e_discardSink" for="edge" attr.name="discardSink" attr.type="boolean"/>
  <graph id="G" edgedefault="directed">
    <node id="n0">
      <data key="v_name">map00010</data>
      <data key="v_description">Glycolysis / Gluconeogenesis</data>
      <data key="v_database">KEGG</data>
      <data key="v_pValue">0.717221898624061</data>
      <data key="v_pp">0.0690320556176545</data>
      <data key="v_size">106</data>
      <data key="v_nSignificant">0</data>
      <data key="v_setRank">0.00171378166252129</data>
      <data key="v_pSetRank">1</data>
      <data key="v_correctedPValue">0.85303714835028</data>
      <data key="v_adjustedPValue">9.34156948298207e-27</data>
    </node>
    <node id="n1">
      <data key="v_name">map00020</data>
      <data key="v_description">Citrate cycle (TCA cycle)</data>
      <data key="v_database">KEGG</data>
      <data key="v_pValue">0.204309538475312</data>
      <data key="v_pp">-0</data>
      <data key="v_size">66</data>
      <data key="v_nSignificant">0</data>
      <data key="v_setRank">0.00171426929664306</data>
      <data key="v_pSetRank">1</data>
      <data key="v_correctedPValue">1</data>
      <data key="v_adjustedPValue">9.34156948298207e-27</data>
    </node>
    <node id="n2">
      <data key="v_name">map00030</data>
      <data key="v_description">Pentose phosphate pathway</data>
      <data key="v_database">KEGG</data>
      <data key="v_pValue">0.271272699510745</data>
      <data key="v_pp">0.519483034713641</data>
      <data key="v_size">85</data>
      <data key="v_nSignificant">0</data>
      <data key="v_setRank">0.0018415329267669</data>
      <data key="v_pSetRank">1</data>
      <data key="v_correctedPValue">0.302354868015682</data>
      <data key="v_adjustedPValue">9.34156948298207e-27</data>
    </node>
    <node id="n3">
      <data key="v_name">map00040</data>
      <data key="v_description">Pentose and glucuronate interconversions</data>
      <data key="v_database">KEGG</data>
      <data key="v_pValue">0.00723725993681046</data>
      <data key="v_pp">2.15696870643863</data>
      <data key="v_size">89</data>
      <data key="v_nSignificant">0</data>
      <data key="v_setRank">0.00213716924279132</data>
      <data key="v_pSetRank">1</data>
      <data key="v_correctedPValue">0.00696676712100629</data>
      <data key="v_adjustedPValue">9.34156948298207e-27</data>
    </node>
    <node id="n4">
      <data key="v_name">map00051</data>
      <data key="v_description">Fructose and mannose metabolism</data>
      <data key="v_database">KEGG</data>
      <data key="v_pValue">0.023569042853526</data>
      <data key="v_pp">1.17751920131184</data>
      <data key="v_size">112</data>
      <data key="v_nSignificant">0</data>
      <data key="v_setRank">0.00526101996903957</data>
      <data key="v_pSetRank">1</data>
      <data key="v_correctedPValue">0.0664478293909146</data>
      <data key="v_adjustedPValue">9.34156948298207e-27</data>
    </node>
    <node id="n5">
      <data key="v_name">map00052</data>
      <data key="v_description">Galactose metabolism</data>
      <data key="v_database">KEGG</data>
      <data key="v_pValue">0.0858980928409433</data>
      <data key="v_pp">0.832259614104141</data>
      <data key="v_size">78</data>
      <data key="v_nSignificant">0</data>
      <data key="v_setRank">0.00383336924129765</data>
      <data key="v_pSetRank">1</data>
      <data key="v_correctedPValue">0.147143264122405</data>
      <data key="v_adjustedPValue">9.34156948298207e-27</data>
    </node>
    <node id="n6">
      <data key="v_name">map00053</data>
      <data key="v_description">Ascorbate and aldarate metabolism</data>
      <data key="v_database">KEGG</data>
      <data key="v_pValue">8.94952332396476e-05</data>
      <data key="v_pp">4.33035404640914</data>
      <data key="v_size">62</data>
      <data key="v_nSignificant">0</data>
      <data key="v_setRank">0.0132394912466551</data>
      <data key="v_pSetRank">1</data>
      <data key="v_correctedPValue">4.67353988700467e-05</data>
      <data key="v_adjustedPValue">9.34156948298207e-27</data>
    </node>
    <node id="n7">
      <data key="v_name">map00061</data>
      <data key="v_description">Fatty acid biosynthesis</data>
      <data key="v_database">KEGG</data>
      <data key="v_pValue">0.368256981316276</data>
      <data key="v_pp">-0</data>
      <data key="v_size">39</data>
      <data key="v_nSignificant">0</data>
      <data key="v_setRank">0.00287070729105334</data>
      <data key="v_pSetRank">1</data>
      <data key="v_correctedPValue">1</data>
      <data key="v_adjustedPValue">9.34156948298207e-27</data>
    </node>
    <node id="n8">
      <data key="v_name">map00062</data>
      <data key="v_description">Fatty acid elongation</data>
      <data key="v_database">KEGG</data>
      <data key="v_pValue">1</data>
      <data key="v_pp">-0</data>
      <data key="v_size">24</data>
      <data key="v_nSignificant">0</data>
      <data key="v_setRank">0.00139185808051071</data>
      <data key="v_pSetRank">1</data>
      <data key="v_correctedPValue">1</data>
      <data key="v_adjustedPValue">9.34156948298207e-27</data>
    </node>
    <node id="n9">
      <data key="v_name">map00071</data>
      <data key="v_description">Fatty acid degradation</data>
      <data key="v_database">KEGG</data>
      <data key="v_pValue">0.00509716097906087</data>
      <data key="v_pp">0.991505080043904</data>
      <data key="v_size">59</data>
      <data key="v_nSignificant">0</data>
      <data key="v_setRank">0.00578839033251039</data>
      <data key="v_pSetRank">1</data>
      <data key="v_correctedPValue">0.101975283168811</data>
      <data key="v_adjustedPValue">9.34156948298207e-27</data>
    </node>
    <node id="n10">
      <data key="v_name">map00073</data>
      <data key="v_description">Cutin, suberine and wax biosynthesis</data>
      <data key="v_database">KEGG</data>
      <data key="v_pValue">1</data>
      <data key="v_pp">-0</data>
      <data key="v_size">14</data>
      <data key="v_nSignificant">0</data>
      <data key="v_setRank">0.00139185808051071</data>
      <data key="v_pSetRank">1</data>
      <data key="v_correctedPValue">1</data>
      <data key="v_adjustedPValue">9.34156948298207e-27</data>
    </node>
    <node id="n11">
      <data key="v_name">map00130</data>
      <data key="v_description">Ubiquinone and other terpenoid-quinone biosynthesis</data>
      <data key="v_database">KEGG</data>
      <data key="v_pValue">0.017258443587672</data>
      <data key="v_pp">1.57950977284775</data>
      <data key="v_size">59</data>
      <data key="v_nSignificant">0</data>
      <data key="v_setRank">0.00295047342322834</data>
      <data key="v_pSetRank">1</data>
      <data key="v_correctedPValue">0.026332386877296</data>
      <data key="v_adjustedPValue">9.34156948298207e-27</data>
    </node>
    <node id="n12">
      <data key="v_name">map00140</data>
      <data key="v_description">Steroid hormone biosynthesis</data>
      <data key="v_database">KEGG</data>
      <data key="v_pValue">0.205779887972187</data>
      <data key="v_pp">0.686597073546001</data>
      <data key="v_size">47</data>
      <data key="v_nSignificant">0</data>
      <data key="v_setRank">0.0016417980673227</data>
      <data key="v_pSetRank">1</data>
      <data key="v_correctedPValue">0.205779887972187</data>
      <data key="v_adjustedPValue">9.34156948298207e-27</data>
    </node>
    <node id="n13">
      <data key="v_name">map00190</data>
      <data key="v_description">Oxidative phosphorylation</data>
      <data key="v_database">KEGG</data>
      <data key="v_pValue">0.00945052728837553</data>
      <data key="v_pp">1.84283683360447</data>
      <data key="v_size">223</data>
      <data key="v_nSignificant">0</data>
      <data key="v_setRank">0.00222984700397895</data>
      <data key="v_pSetRank">1</data>
      <data key="v_correctedPValue">0.0143602885453299</data>
      <data key="v_adjustedPValue">9.34156948298207e-27</data>
    </node>
    <node id="n14">
      <data key="v_name">map00220</data>
      <data key="v_description">Arginine biosynthesis</data>
      <data key="v_database">KEGG</data>
      <data key="v_pValue">0.145313104110034</data>
      <data key="v_pp">0.642115548923643</data>
      <data key="v_size">60</data>
      <data key="v_nSignificant">0</data>
      <data key="v_setRank">0.00266800047127228</data>
      <data key="v_pSetRank">1</data>
      <data key="v_correctedPValue">0.227973544208992</data>
      <data key="v_adjustedPValue">9.34156948298207e-27</data>
    </node>
    <node id="n15">
      <data key="v_name">map00230</data>
      <data key="v_description">Purine metabolism</data>
      <data key="v_database">KEGG</data>
      <data key="v_pValue">0.257655835496929</data>
      <data key="v_pp">0.564492460690281</data>
      <data key="v_size">217</data>
      <data key="v_nSignificant">0</data>
      <data key="v_setRank">0.00312514974474793</data>
      <data key="v_pSetRank">1</data>
      <data key="v_correctedPValue">0.272588505961575</data>
      <data key="v_adjustedPValue">9.34156948298207e-27</data>
    </node>
    <node id="n16">
      <data key="v_name">map00232</data>
      <data key="v_description">Caffeine metabolism</data>
      <data key="v_database">KEGG</data>
      <data key="v_pValue">0.0743455260712925</data>
      <data key="v_pp">1.12874516111663</data>
      <data key="v_size">16</data>
      <data key="v_nSignificant">0</data>
      <data key="v_setRank">0.00338749225790355</data>
      <data key="v_pSetRank">1</data>
      <data key="v_correctedPValue">0.0743455260712925</data>
      <data key="v_adjustedPValue">9.34156948298207e-27</data>
    </node>
    <node id="n17">
      <data key="v_name">map00240</data>
      <data key="v_description">Pyrimidine metabolism</data>
      <data key="v_database">KEGG</data>
      <data key="v_pValue">0.498937681492874</data>
      <data key="v_pp">0.231149419572863</data>
      <data key="v_size">110</data>
      <data key="v_nSignificant">0</data>
      <data key="v_setRank">0.00196318853714804</data>
      <data key="v_pSetRank">1</data>
      <data key="v_correctedPValue">0.587287260832367</data>
      <data key="v_adjustedPValue">9.34156948298207e-27</data>
    </node>
    <node id="n18">
      <data key="v_name">map00250</data>
      <data key="v_description">Alanine, aspartate and glutamate metabolism</data>
      <data key="v_database">KEGG</data>
      <data key="v_pValue">0.385983495405417</data>
      <data key="v_pp">0.29237366941584</data>
      <data key="v_size">70</data>
      <data key="v_nSignificant">0</data>
      <data key="v_setRank">0.00198140748352771</data>
      <data key="v_pSetRank">1</data>
      <data key="v_correctedPValue">0.510065947509701</data>
      <data key="v_adjustedPValue">9.34156948298207e-27</data>
    </node>
    <node id="n19">
      <data key="v_name">map00253</data>
      <data key="v_description">Tetracycline biosynthesis</data>
      <data key="v_database">KEGG</data>
      <data key="v_pValue">0.000901355785145873</data>
      <data key="v_pp">1.90668885244396</data>
      <data key="v_size">17</data>
      <data key="v_nSignificant">0</data>
      <data key="v_setRank">0.00257493744894481</data>
      <data key="v_pSetRank">1</data>
      <data key="v_correctedPValue">0.0123968443257832</data>
      <data key="v_adjustedPValue">0.000499784609896709</data>
    </node>
    <node id="n20">
      <data key="v_name">map00254</data>
      <data key="v_description">Aflatoxin biosynthesis</data>
      <data key="v_database">KEGG</data>
      <data key="v_pValue">1</data>
      <data key="v_pp">-0</data>
      <data key="v_size">20</data>
      <data key="v_nSignificant">0</data>
      <data key="v_setRank">0.00139185808051071</data>
      <data key="v_pSetRank">1</data>
      <data key="v_correctedPValue">1</data>
      <data key="v_adjustedPValue">9.34156948298207e-27</data>
    </node>
    <node id="n21">
      <data key="v_name">map00260</data>
      <data key="v_description">Glycine, serine and threonine metabolism</data>
      <data key="v_database">KEGG</data>
      <data key="v_pValue">0.00134620477127465</data>
      <data key="v_pp">1.71481767368125</data>
      <data key="v_size">109</data>
      <data key="v_nSignificant">0</data>
      <data key="v_setRank">0.0047465195591495</data>
      <data key="v_pSetRank">1</data>
      <data key="v_correctedPValue">0.0192833430017946</data>
      <data key="v_adjustedPValue">9.34156948298207e-27</data>
    </node>
    <node id="n22">
      <data key="v_name">map00261</data>
      <data key="v_description">Monobactam biosynthesis</data>
      <data key="v_database">KEGG</data>
      <data key="v_pValue">0.473058093137942</data>
      <data key="v_pp">0.360005299114812</data>
      <data key="v_size">28</data>
      <data key="v_nSignificant">0</data>
      <data key="v_setRank">0.00201725543477111</data>
      <data key="v_pSetRank">1</data>
      <data key="v_correctedPValue">0.43651050605368</data>
      <data key="v_adjustedPValue">9.34156948298207e-27</data>
    </node>
    <node id="n23">
      <data key="v_name">map00270</data>
      <data key="v_description">Cysteine and methionine metabolism</data>
      <data key="v_database">KEGG</data>
      <data key="v_pValue">0.223303985146108</data>
      <data key="v_pp">0.578220742787039</data>
      <data key="v_size">123</data>
      <data key="v_nSignificant">0</data>
      <data key="v_setRank">0.00308691320943928</data>
      <data key="v_pSetRank">1</data>
      <data key="v_correctedPValue">0.264106601757904</data>
      <data key="v_adjustedPValue">9.34156948298207e-27</data>
    </node>
    <node id="n24">
      <data key="v_name">map00280</data>
      <data key="v_description">Valine, leucine and isoleucine degradation</data>
      <data key="v_database">KEGG</data>
      <data key="v_pValue">0.00188873759566609</data>
      <data key="v_pp">2.05185061671619</data>
      <data key="v_size">69</data>
      <data key="v_nSignificant">0</data>
      <data key="v_setRank">0.00490954969456388</data>
      <data key="v_pSetRank">1</data>
      <data key="v_correctedPValue">0.0088746121755828</data>
      <data key="v_adjustedPValue">9.34156948298207e-27</data>
    </node>
    <node id="n25">
      <data key="v_name">map00290</data>
      <data key="v_description">Valine, leucine and isoleucine biosynthesis</data>
      <data key="v_database">KEGG</data>
      <data key="v_pValue">0.0635471960809152</data>
      <data key="v_pp">0.537532535047353</data>
      <data key="v_size">19</data>
      <data key="v_nSignificant">0</data>
      <data key="v_setRank">0.00220746847933041</data>
      <data key="v_pSetRank">1</data>
      <data key="v_correctedPValue">0.290046390312716</data>
      <data key="v_adjustedPValue">9.34156948298207e-27</data>
    </node>
    <node id="n26">
      <data key="v_name">map00300</data>
      <data key="v_description">Lysine biosynthesis</data>
      <data key="v_database">KEGG</data>
      <data key="v_pValue">0.861681045119644</data>
      <data key="v_pp">0.0067225275521521</data>
      <data key="v_size">48</data>
      <data key="v_nSignificant">0</data>
      <data key="v_setRank">0.00198339776472776</data>
      <data key="v_pSetRank">1</data>
      <data key="v_correctedPValue">0.984639995194595</data>
      <data key="v_adjustedPValue">9.34156948298207e-27</data>
    </node>
    <node id="n27">
      <data key="v_name">map00310</data>
      <data key="v_description">Lysine degradation</data>
      <data key="v_database">KEGG</data>
      <data key="v_pValue">0.00216450095286331</data>
      <data key="v_pp">1.79476516791448</data>
      <data key="v_size">98</data>
      <data key="v_nSignificant">0</data>
      <data key="v_setRank">0.00568068263230384</data>
      <data key="v_pSetRank">1</data>
      <data key="v_correctedPValue">0.0160411253333558</data>
      <data key="v_adjustedPValue">9.34156948298207e-27</data>
    </node>
    <node id="n28">
      <data key="v_name">map00330</data>
      <data key="v_description">Arginine and proline metabolism</data>
      <data key="v_database">KEGG</data>
      <data key="v_pValue">0.00025212653039756</data>
      <data key="v_pp">2.91076109037884</data>
      <data key="v_size">107</data>
      <data key="v_nSignificant">0</data>
      <data key="v_setRank">0.00963807985203548</data>
      <data key="v_pSetRank">1</data>
      <data key="v_correctedPValue">0.00122811464318355</data>
      <data key="v_adjustedPValue">9.34156948298207e-27</data>
    </node>
    <node id="n29">
      <data key="v_name">map00332</data>
      <data key="v_description">Carbapenem biosynthesis</data>
      <data key="v_database">KEGG</data>
      <data key="v_pValue">0.491123962979657</data>
      <data key="v_pp">0.308808875202664</data>
      <data key="v_size">19</data>
      <data key="v_nSignificant">0</data>
      <data key="v_setRank">0.00139185808051071</data>
      <data key="v_pSetRank">1</data>
      <data key="v_correctedPValue">0.491123962979657</data>
      <data key="v_adjustedPValue">9.34156948298207e-27</data>
    </node>
    <node id="n30">
      <data key="v_name">map00333</data>
      <data key="v_description">Prodigiosin biosynthesis</data>
      <data key="v_database">KEGG</data>
      <data key="v_pValue">0.535898493688996</data>
      <data key="v_pp">1.15622426989087</data>
      <data key="v_size">20</data>
      <data key="v_nSignificant">0</data>
      <data key="v_setRank">0.00195875027788539</data>
      <data key="v_pSetRank">1</data>
      <data key="v_correctedPValue">0.0697871929591942</data>
      <data key="v_adjustedPValue">9.34156948298207e-27</data>
    </node>
    <node id="n31">
      <data key="v_name">map00340</data>
      <data key="v_description">Histidine metabolism</data>
      <data key="v_database">KEGG</data>
      <data key="v_pValue">0.140760290595828</data>
      <data key="v_pp">0.780142667697742</data>
      <data key="v_size">47</data>
      <data key="v_nSignificant">0</data>
      <data key="v_setRank">0.00220906241160912</data>
      <data key="v_pSetRank">1</data>
      <data key="v_correctedPValue">0.165904181518451</data>
      <data key="v_adjustedPValue">9.34156948298207e-27</data>
    </node>
    <node id="n32">
      <data key="v_name">map00350</data>
      <data key="v_description">Tyrosine metabolism</data>
      <data key="v_database">KEGG</data>
      <data key="v_pValue">0.00138421163846793</data>
      <data key="v_pp">0.774289796454017</data>
      <data key="v_size">84</data>
      <data key="v_nSignificant">0</data>
      <data key="v_setRank">0.00882611232918282</data>
      <data key="v_pSetRank">1</data>
      <data key="v_correctedPValue">0.168155161918242</data>
      <data key="v_adjustedPValue">9.34156948298207e-27</data>
    </node>
    <node id="n33">
      <data key="v_name">map00360</data>
      <data key="v_description">Phenylalanine metabolism</data>
      <data key="v_database">KEGG</data>
      <data key="v_pValue">4.46568362543831e-05</data>
      <data key="v_pp">2.96848485482654</data>
      <data key="v_size">74</data>
      <data key="v_nSignificant">0</data>
      <data key="v_setRank">0.0128657594642565</data>
      <data key="v_pSetRank">1</data>
      <data key="v_correctedPValue">0.00107526409747823</data>
      <data key="v_adjustedPValue">9.34156948298207e-27</data>
    </node>
    <node id="n34">
      <data key="v_name">map00361</data>
      <data key="v_description">Chlorocyclohexane and chlorobenzene degradation</data>
      <data key="v_database">KEGG</data>
      <data key="v_pValue">6.26683332360609e-16</data>
      <data key="v_pp">2.45485609031559</data>
      <data key="v_size">41</data>
      <data key="v_nSignificant">0</data>
      <data key="v_setRank">0.00518020212370313</data>
      <data key="v_pSetRank">1</data>
      <data key="v_correctedPValue">0.00350868119858482</data>
      <data key="v_adjustedPValue">9.34156948298207e-27</data>
    </node>
    <node id="n35">
      <data key="v_name">map00362</data>
      <data key="v_description">Benzoate degradation</data>
      <data key="v_database">KEGG</data>
      <data key="v_pValue">2.71686782994835e-24</data>
      <data key="v_pp">7.82214559973889</data>
      <data key="v_size">106</data>
      <data key="v_nSignificant">0</data>
      <data key="v_setRank">0.0330403869037909</data>
      <data key="v_pSetRank">0.00189433682051914</data>
      <data key="v_correctedPValue">1.50610205210628e-08</data>
      <data key="v_adjustedPValue">9.34156948298207e-27</data>
    </node>
    <node id="n36">
      <data key="v_name">map00364</data>
      <data key="v_description">Fluorobenzoate degradation</data>
      <data key="v_database">KEGG</data>
      <data key="v_pValue">1.18531126082142e-08</data>
      <data key="v_pp">2.45768056230761</data>
      <data key="v_size">18</data>
      <data key="v_nSignificant">0</data>
      <data key="v_setRank">0.0069882361218678</data>
      <data key="v_pSetRank">1</data>
      <data key="v_correctedPValue">0.00348593622691007</data>
      <data key="v_adjustedPValue">9.34156948298207e-27</data>
    </node>
    <node id="n37">
      <data key="v_name">map00365</data>
      <data key="v_description">Furfural degradation</data>
      <data key="v_database">KEGG</data>
      <data key="v_pValue">0.000181143940797286</data>
      <data key="v_pp">3.74197618838801</data>
      <data key="v_size">8</data>
      <data key="v_nSignificant">0</data>
      <data key="v_setRank">0.00139185808051071</data>
      <data key="v_pSetRank">1</data>
      <data key="v_correctedPValue">0.000181143940797286</data>
      <data key="v_adjustedPValue">0.00525317428312129</data>
    </node>
    <node id="n38">
      <data key="v_name">map00380</data>
      <data key="v_description">Tryptophan metabolism</data>
      <data key="v_database">KEGG</data>
      <data key="v_pValue">9.29652681902484e-06</data>
      <data key="v_pp">4.57248373430467</data>
      <data key="v_size">80</data>
      <data key="v_nSignificant">0</data>
      <data key="v_setRank">0.0182661840497738</data>
      <data key="v_pSetRank">0.166248427673377</data>
      <data key="v_correctedPValue">2.676185822905e-05</data>
      <data key="v_adjustedPValue">9.34156948298207e-27</data>
    </node>
    <node id="n39">
      <data key="v_name">map00400</data>
      <data key="v_description">Phenylalanine, tyrosine and tryptophan biosynthesis</data>
      <data key="v_database">KEGG</data>
      <data key="v_pValue">0.333663795446006</data>
      <data key="v_pp">0.398494431935972</data>
      <data key="v_size">72</data>
      <data key="v_nSignificant">0</data>
      <data key="v_setRank">0.00226883022190957</data>
      <data key="v_pSetRank">1</data>
      <data key="v_correctedPValue">0.3994896831092</data>
      <data key="v_adjustedPValue">9.34156948298207e-27</data>
    </node>
    <node id="n40">
      <data key="v_name">map00401</data>
      <data key="v_description">Novobiocin biosynthesis</data>
      <data key="v_database">KEGG</data>
      <data key="v_pValue">0.222636706538245</data>
      <data key="v_pp">1.02051035882537</data>
      <data key="v_size">30</data>
      <data key="v_nSignificant">0</data>
      <data key="v_setRank">0.00246487459658169</data>
      <data key="v_pSetRank">1</data>
      <data key="v_correctedPValue">0.0953870990766009</data>
      <data key="v_adjustedPValue">9.34156948298207e-27</data>
    </node>
    <node id="n41">
      <data key="v_name">map00402</data>
      <data key="v_description">Benzoxazinoid biosynthesis</data>
      <data key="v_database">KEGG</data>
      <data key="v_pValue">1</data>
      <data key="v_pp">-0</data>
      <data key="v_size">8</data>
      <data key="v_nSignificant">0</data>
      <data key="v_setRank">0.00139185808051071</data>
      <data key="v_pSetRank">1</data>
      <data key="v_correctedPValue">1</data>
      <data key="v_adjustedPValue">9.34156948298207e-27</data>
    </node>
    <node id="n42">
      <data key="v_name">map00404</data>
      <data key="v_description">Staurosporine biosynthesis</data>
      <data key="v_database">KEGG</data>
      <data key="v_pValue">0.00265552988338567</data>
      <data key="v_pp">2.57584880698577</data>
      <data key="v_size">40</data>
      <data key="v_nSignificant">0</data>
      <data key="v_setRank">0.00139185808051071</data>
      <data key="v_pSetRank">1</data>
      <data key="v_correctedPValue">0.00265552988338567</data>
      <data key="v_adjustedPValue">9.34156948298207e-27</data>
    </node>
    <node id="n43">
      <data key="v_name">map00405</data>
      <data key="v_description">Phenazine biosynthesis</data>
      <data key="v_database">KEGG</data>
      <data key="v_pValue">0.0876884052661052</data>
      <data key="v_pp">1.1438580894338</data>
      <data key="v_size">16</data>
      <data key="v_nSignificant">0</data>
      <data key="v_setRank">0.00156717677947645</data>
      <data key="v_pSetRank">1</data>
      <data key="v_correctedPValue">0.0718028876887148</data>
      <data key="v_adjustedPValue">9.34156948298207e-27</data>
    </node>
    <node id="n44">
      <data key="v_name">map00410</data>
      <data key="v_description">beta-Alanine metabolism</data>
      <data key="v_database">KEGG</data>
      <data key="v_pValue">0.000173781297849326</data>
      <data key="v_pp">2.75867405640138</data>
      <data key="v_size">45</data>
      <data key="v_nSignificant">0</data>
      <data key="v_setRank">0.0169386375449211</data>
      <data key="v_pSetRank">0.269296836632705</data>
      <data key="v_correctedPValue">0.00174311461254563</data>
      <data key="v_adjustedPValue">9.34156948298207e-27</data>
    </node>
    <node id="n45">
      <data key="v_name">map00430</data>
      <data key="v_description">Taurine and hypotaurine metabolism</data>
      <data key="v_database">KEGG</data>
      <data key="v_pValue">0.160286297168653</data>
      <data key="v_pp">0.68662935879526</data>
      <data key="v_size">29</data>
      <data key="v_nSignificant">0</data>
      <data key="v_setRank">0.0019619764436592</data>
      <data key="v_pSetRank">1</data>
      <data key="v_correctedPValue">0.205764590959871</data>
      <data key="v_adjustedPValue">9.34156948298207e-27</data>
    </node>
    <node id="n46">
      <data key="v_name">map00440</data>
      <data key="v_description">Phosphonate and phosphinate metabolism</data>
      <data key="v_database">KEGG</data>
      <data key="v_pValue">6.58836523503101e-05</data>
      <data key="v_pp">4.18122233312678</data>
      <data key="v_size">44</data>
      <data key="v_nSignificant">0</data>
      <data key="v_setRank">0.0094644527173619</data>
      <data key="v_pSetRank">1</data>
      <data key="v_correctedPValue">6.58836523503101e-05</data>
      <data key="v_adjustedPValue">9.34156948298207e-27</data>
    </node>
    <node id="n47">
      <data key="v_name">map00450</data>
      <data key="v_description">Selenocompound metabolism</data>
      <data key="v_database">KEGG</data>
      <data key="v_pValue">0.485311777217845</data>
      <data key="v_pp">0.242479755222576</data>
      <data key="v_size">33</data>
      <data key="v_nSignificant">0</data>
      <data key="v_setRank">0.00161187987078189</data>
      <data key="v_pSetRank">1</data>
      <data key="v_correctedPValue">0.572163625622734</data>
      <data key="v_adjustedPValue">9.34156948298207e-27</data>
    </node>
    <node id="n48">